22
R0102 1 2 2
L0302 3 2 1E-1
C0300 1 0 1E-1 IC=1
C0400 2 0 1E-1 IC=1
E2200 3 0 2 1 1
.TRAN 10 1E-3 BE 1 UIC
