1
C0100 0 1 0.002 IC=1
R0100 0 1 100
.TRAN 80E-2 8E-2 ADMO4 1 UIC2 8