2
V0100 0 1 DC 20
R0100 0 2 10
R0100 1 2 10
.TRAN 10E-2 2E-2 ADMO4 1 UIC2 8