1
V0100 0 1 SIN 0 1 10 0 0 0 100
C0100 0 2 100
R0100 1 2 100
.TRAN 2000E-2 15E-2 ADMO4 1 UIC2 8