2
C0100 0 1 1 IC=10
L0100 0 1 1
C0200 1 2 1
R0101 0 2 1
.TRAN 10E-2 2E-2 ADMO4 1 UIC2 8