3
V2200 1 0 PULSE 5 0 1 0.00001 0.00001 2 4 10
R1 1 2 100
R2 3 2 200
C1 3 2 0.01 IC=1
.TRAN 10 1E-3 BE 1 UIC